*Heading
** Job name: Job-1 Model name: Model-1
** Generated by: Abaqus/CAE Learning Edition 2025
*Preprint, echo=NO, model=NO, history=NO, contact=NO
**
** PARTS
**
*Part, name=Part-1
*Node
      1,   9.00968838,   4.33883762,           0.
      2,   6.23489809,   7.81831503,           0.
      3,   2.22520924,   9.74927902,           0.
      4,  -2.22520924,   9.74927902,           0.
      5,  -6.23489809,   7.81831503,           0.
      6,  -9.00968838,   4.33883762,           0.
      7,         -10.,           0.,           0.
      8,  -9.00968838,  -4.33883762,           0.
      9,  -6.23489809,  -7.81831503,           0.
     10,  -2.22520924,  -9.74927902,           0.
     11,   2.22520924,  -9.74927902,           0.
     12,   6.23489809,  -7.81831503,           0.
     13,   9.00968838,  -4.33883762,           0.
     14,          10.,           0.,           0.
     15,  0.383405179,  -4.11574602,           0.
     16,  -2.07888985,  -1.40413797,           0.
     17, -0.722038448,   1.18585086,           0.
     18, -0.273270249,   4.15556288,           0.
     19,   2.04946375,   3.66707301,           0.
     20,   5.56529713,   2.85217929,           0.
** ... 180 like lines cut
*Element, type=C3D8R
  1,  51,  50,  73,  74,  11,  10,  33,  34
  2,  51,  74,  75,  52,  11,  34,  35,  12
  3,  49,  72,  73,  50,   9,  32,  33,  10
  4,  73,  72,  71,  77,  33,  32,  31,  37
  5,  57,  56,  70,  69,  17,  16,  30,  29
  6,  58,  68,  67,  66,  18,  28,  27,  26
  7,  62,  57,  64,  63,  22,  17,  24,  23
  8,  63,  64,  60,  61,  23,  24,  20,  21
  9,  78,  62,  63,  79,  38,  22,  23,  39
 10,  76,  61,  54,  53,  36,  21,  14,  13
 11,  56,  57,  62,  80,  16,  17,  22,  40
 12,  76,  75,  78,  79,  36,  35,  38,  39
 13,  75,  76,  53,  52,  35,  36,  13,  12
 14,  49,  48,  71,  72,   9,   8,  31,  32
 15,  47,  70,  71,  48,   7,  30,  31,   8
 16,  46,  69,  70,  47,   6,  29,  30,   7
 17,  45,  68,  69,  46,   5,  28,  29,   6
 18,  45,  44,  67,  68,   5,   4,  27,  28
 19,  44,  43,  66,  67,   4,   3,  26,  27
 20,  60,  65,  42,  41,  20,  25,   2,   1
** ... 108 like lines cut
*Nset, nset=Set-1, generate
   1,  200,    1
*Elset, elset=Set-1, generate
   1,  128,    1
** Section: Section-1
*Solid Section, elset=Set-1, material=Material-1
,
*End Part
**  
**
** ASSEMBLY
**
*Assembly, name=Assembly
**  
*Instance, name=Part-1-1, part=Part-1
*End Instance
**  
*Instance, name=Part-1-2, part=Part-1
         22.,           0.,           0.
*End Instance
**  
*Nset, nset=Set-1, instance=Part-1-1, generate
 161,  200,    1
*Nset, nset=Set-1, instance=Part-1-2, generate
 161,  200,    1
*Elset, elset=Set-1, instance=Part-1-1, generate
  97,  128,    1
*Elset, elset=Set-1, instance=Part-1-2, generate
  97,  128,    1
*Nset, nset=Set-2, instance=Part-1-1, generate
   1,  200,    1
*Nset, nset=Set-2, instance=Part-1-2, generate
   1,  200,    1
*Elset, elset=Set-2, instance=Part-1-1, generate
   1,  128,    1
*Elset, elset=Set-2, instance=Part-1-2, generate
   1,  128,    1
*Nset, nset=Set-3, instance=Part-1-1, generate
   1,  200,    1
*Nset, nset=Set-3, instance=Part-1-2, generate
   1,  200,    1
*Elset, elset=Set-3, instance=Part-1-1, generate
   1,  128,    1
*Elset, elset=Set-3, instance=Part-1-2, generate
   1,  128,    1
*Elset, elset=_Surf-1_S2, internal, instance=Part-1-1, generate
  1,  32,   1
*Elset, elset=_Surf-1_S2, internal, instance=Part-1-2, generate
  1,  32,   1
*Surface, type=ELEMENT, name=Surf-1
_Surf-1_S2, S2
*End Assembly
** 
** MATERIALS
** 
*Material, name=Material-1
*Elastic
 1e+06, 0.3
** 
** BOUNDARY CONDITIONS
** 
** Name: BC-1 Type: Symmetry/Antisymmetry/Encastre
*Boundary
Set-1, ENCASTRE
** 
** PREDEFINED FIELDS
** 
** Name: Predefined Field-1   Type: Temperature
*Initial Conditions, type=TEMPERATURE
Set-2, 70.
** ----------------------------------------------------------------
** 
** STEP: trans
** 
*Step, name=trans, nlgeom=NO
*Static
1., 10., 0.0001, 1.
** 
** LOADS
** 
** Name: Load-1   Type: Pressure
*Dsload
Surf-1, P, 1.
** 
** PREDEFINED FIELDS
** 
** Name: Predefined Field-2   Type: Temperature
*Temperature
Set-3, 100.
** 
** OUTPUT REQUESTS
** 
*Restart, write, frequency=0
** 
** FIELD OUTPUT: F-Output-1
** 
*Output, field
*Node Output
COORD, NT
*Element Output, directions=YES
COORD, S
*Output, history, frequency=0
*End Step
** ----------------------------------------------------------------
** 
** STEP: final
** 
*Step, name=final, nlgeom=NO
*Static
0.5, 2., 2e-05, 1.
** 
** OUTPUT REQUESTS
** 
*Restart, write, frequency=0
** 
** FIELD OUTPUT: F-Output-1
** 
*Output, field
*Node Output
COORD, NT
*Element Output, directions=YES
COORD, S
*Output, history, frequency=0
*End Step
