 Abaqus/Standard Learning Edition 2025                  DATE 02-Apr-2026 TIME 17:49:44
 SUMMARY OF JOB INFORMATION:
 STEP  INC ATT SEVERE EQUIL TOTAL  TOTAL      STEP       INC OF       DOF    IF
               DISCON ITERS ITERS  TIME/    TIME/LPF    TIME/LPF    MONITOR RIKS
               ITERS               FREQ
   1     1   1     0     1     1  1.00       1.00       1.000     
   1     2   1     0     1     1  2.00       2.00       1.000     
   1     3   1     0     1     1  3.00       3.00       1.000     
   1     4   1     0     1     1  4.00       4.00       1.000     
   1     5   1     0     1     1  5.00       5.00       1.000     
   1     6   1     0     1     1  6.00       6.00       1.000     
   1     7   1     0     1     1  7.00       7.00       1.000     
   1     8   1     0     1     1  8.00       8.00       1.000     
   1     9   1     0     1     1  9.00       9.00       1.000     
   1    10   1     0     1     1  10.0       10.0       1.000     
   2     1   1     0     1     1  10.5       0.500      0.5000    
   2     2   1     0     1     1  11.0       1.00       0.5000    
   2     3   1     0     1     1  11.8       1.75       0.7500    
   2     4   1     0     1     1  12.0       2.00       0.2500    
                          
 THE ANALYSIS HAS COMPLETED SUCCESSFULLY
